CPYDAR/j1red/Line.dss
New "Line.temp_sub" bus1=ls_bus bus2=fdr_bus Switch=True enabled=true phases=3 normamps=99999 emergamps=99999
New "Line.feeder" bus1=fdr_bus bus2=feederhead Switch=True enabled=true phases=3 normamps=99999 emergamps=99999
New "Line.1" phases=1 bus1=5848128103.3 bus2=b13923.3 rmatrix=[1.12735 ] xmatrix=[0.72761 ] cmatrix=[0 ]
New "Line.2" phases=1 bus1=5851228580.3 bus2=b35443.3 rmatrix=[0.50874 ] xmatrix=[0.31134 ] cmatrix=[0 ]
New "Line.3" phases=3 bus1=b4833.1.2.3 bus2=5865228330a.1.2.3 r1=0.12398 x1=0.07856 r0=0.19871 x0=0.1698 C1=0.01965 C0=0.01658
New "Line.4" phases=3 bus1=b23208.1.2.3 bus2=5890628219.1.2.3 r1=0.15661 x1=0.14118 r0=0.25944 x0=0.38941 C1=0.01965 C0=0.01658
New "Line.5" phases=1 bus1=5912527743.1 bus2=b2630.1 rmatrix=[0.999096 ] xmatrix=[0.73186 ] cmatrix=[0 ]
New "Line.6" phases=1 bus1=5925528209a.3 bus2=b60868.3 rmatrix=[1.28595 ] xmatrix=[0.81278 ] cmatrix=[0 ]
New "Line.7" phases=1 bus1=5962929303.2 bus2=b43438.2 rmatrix=[1.006727 ] xmatrix=[0.417 ] cmatrix=[0 ]
New "Line.8" phases=1 bus1=5967328881.2 bus2=6022828946.2 rmatrix=[1.53117 ] xmatrix=[0.81491 ] cmatrix=[0 ]
New "Line.9" phases=1 bus1=5988528387.3 bus2=b60868.3 rmatrix=[0.97834 ] xmatrix=[0.60968 ] cmatrix=[0 ]
New "Line.10" phases=1 bus1=5998528541.3 bus2=b18948.3 rmatrix=[1.523787 ] xmatrix=[1.02329 ] cmatrix=[0 ]
New "Line.11" phases=3 bus1=b18858.1.2.3 bus2=6022828946.1.2.3 r1=2.42239 x1=1.63709 r0=4.52066 x0=4.11966 C1=0.01965 C0=0.01658
New "Line.12" phases=1 bus1=6093229888.1 bus2=b19028.1 rmatrix=[1.228127 ] xmatrix=[0.92344 ] cmatrix=[0 ]
New "Line.13" phases=3 bus1=b19183.1.2.3 bus2=b13649.1.2.3 r1=0.05852 x1=0.17168 r0=0.18827 x0=0.54346 C1=0.01965 C0=0.01658
New "Line.14" phases=1 bus1=b13923.3 bus2=b19052.3 rmatrix=[1.136137 ] xmatrix=[0.56568 ] cmatrix=[0 ]
New "Line.15" phases=1 bus1=b14440.3 bus2=b4837.3 rmatrix=[0.326157 ] xmatrix=[0.17913 ] cmatrix=[0 ]
New "Line.16" phases=1 bus1=b17991.3 bus2=b4588.3 rmatrix=[1.252993 ] xmatrix=[0.6617 ] cmatrix=[0 ]
New "Line.17" phases=3 bus1=b4833.1.2.3 bus2=b18821.1.2.3 r1=0.01376 x1=0.02672 r0=0.05728 x0=0.07204 C1=0.01965 C0=0.01658
New "Line.18" phases=3 bus1=b4837.1.2.3 bus2=b18829.1.2.3 r1=0.01373 x1=0.03151 r0=0.05428 x0=0.09398 C1=0.01965 C0=0.01658
New "Line.19" phases=3 bus1=b18829.1.2.3 bus2=b18858.1.2.3 r1=0.71377 x1=0.58678 r0=1.33302 x0=1.5021 C1=0.01965 C0=0.01658
New "Line.20" phases=3 bus1=6022828946.1.2.3 bus2=b18941.1.2.3 r1=0.05825 x1=0.02402 r0=0.1008 x0=0.0695 C1=0.01965 C0=0.01658
New "Line.21" phases=3 bus1=b18941.1.2.3 bus2=b18948.1.2.3 r1=0.23474 x1=0.11777 r0=0.3095 x0=0.2852 C1=0.01965 C0=0.01658
New "Line.22" phases=3 bus1=b18948.1.2.3 bus2=b18967.1.2.3 r1=0.65279 x1=0.33845 r0=0.8703 x0=0.8546 C1=0.01965 C0=0.01658
New "Line.23" phases=2 bus1=b19028.1.2 bus2=b18967.1.2 r1=1.25273 x1=0.96227 r0=1.8925 x0=1.9543 C1=0.01965 C0=0.01658
New "Line.24" phases=3 bus1=b4808.1.2.3 bus2=b19042.1.2.3 r1=0.40688 x1=0.2346 r0=0.58595 x0=0.7358 C1=0.01965 C0=0.01658
New "Line.25" phases=3 bus1=b4760.1.2.3 bus2=b19052.1.2.3 r1=0.66847 x1=0.38052 r0=0.96222 x0=1.18225 C1=0.01965 C0=0.01658
New "Line.26" phases=3 bus1=b4760.1.2.3 bus2=b19183.1.2.3 r1=0.01965 x1=0.05722 r0=0.05599 x0=0.17393 C1=0.01965 C0=0.01658
New "Line.27" phases=1 bus1=b22803.3 bus2=b13923.3 rmatrix=[1.20305 ] xmatrix=[0.72305 ] cmatrix=[0 ]
New "Line.28" phases=3 bus1=b4837.1.2.3 bus2=b23208.1.2.3 r1=0.70762 x1=0.35589 r0=1.08207 x0=1.07058 C1=0.01965 C0=0.01658
New "Line.29" phases=3 bus1=b5213.1.2.3 bus2=b23283.1.2.3 r1=0.22388 x1=0.44063 r0=0.61492 x0=1.35274 C1=0.01965 C0=0.01658
New "Line.30" phases=1 bus1=b23416.1 bus2=b23283.1 rmatrix=[1.334611 ] xmatrix=[0.84414 ] cmatrix=[0 ]
New "Line.31" phases=1 bus1=b24288.3 bus2=b22803.3 rmatrix=[4.04491 ] xmatrix=[2.46352 ] cmatrix=[0 ]
New "Line.32" phases=1 bus1=b24504.3 bus2=b4725.3 rmatrix=[1.834863 ] xmatrix=[1.37462 ] cmatrix=[0 ]
New "Line.33" phases=3 bus1=b23283.1.2.3 bus2=b2630.1.2.3 r1=0.10962 x1=0.34618 r0=0.30313 x0=1.11189 C1=0.01965 C0=0.01658
New "Line.34" phases=1 bus1=b29921.3 bus2=b5213.3 rmatrix=[0.467408 ] xmatrix=[0.27324 ] cmatrix=[0 ]
New "Line.35" phases=1 bus1=b31997.3 bus2=b24504.3 rmatrix=[0.83442 ] xmatrix=[0.51091 ] cmatrix=[0 ]
New "Line.36" phases=1 bus1=b32783.2 bus2=b4888.2 rmatrix=[0.73586 ] xmatrix=[0.59032 ] cmatrix=[0 ]
New "Line.37" phases=1 bus1=b35443.3 bus2=b13649.3 rmatrix=[0.56489 ] xmatrix=[0.22101 ] cmatrix=[0 ]
New "Line.38" phases=2 bus1=b41878.1.2 bus2=b19028.1.2 r1=1.38201 x1=0.78243 r0=1.8344 x0=1.8314 C1=0.01965 C0=0.01658
New "Line.39" phases=2 bus1=b43438.1.2 bus2=b41878.1.2 r1=0.66059 x1=0.39523 r0=0.9228 x0=1.0367 C1=0.01965 C0=0.01658
New "Line.40" phases=3 bus1=b4588.1.2.3 bus2=b4541.1.2.3 r1=0.9242 x1=0.79857 r0=1.56621 x0=2.56093 C1=0.01965 C0=0.01658
New "Line.41" phases=3 bus1=b4602.1.2.3 bus2=b4588.1.2.3 r1=0.2174 x1=0.20714 r0=0.38659 x0=0.66387 C1=0.01965 C0=0.01658
New "Line.42" phases=3 bus1=b4725.1.2.3 bus2=b4602.1.2.3 r1=0.04289 x1=0.13224 r0=0.16398 x0=0.45992 C1=0.01965 C0=0.01658
New "Line.43" phases=3 bus1=b4602.1.2.3 bus2=b4619.1.2.3 r1=0.36815 x1=0.26046 r0=0.56131 x0=0.81533 C1=0.01965 C0=0.01658
New "Line.44" phases=3 bus1=b18829.1.2.3 bus2=b46703.1.2.3 r1=0.24301 x1=0.13951 r0=0.34384 x0=0.43356 C1=0.01965 C0=0.01658
New "Line.45" phases=3 bus1=b13649.1.2.3 bus2=b4725.1.2.3 r1=0.01333 x1=0.04006 r0=0.04746 x0=0.13262 C1=0.01965 C0=0.01658
New "Line.46" phases=3 bus1=b4808.1.2.3 bus2=b4760.1.2.3 r1=0.07172 x1=0.20177 r0=0.20572 x0=0.60114 C1=0.01965 C0=0.01658
New "Line.47" phases=3 bus1=b4808.1.2.3 bus2=b47668.1.2.3 r1=0.73226 x1=0.42302 r0=1.04485 x0=1.31719 C1=0.01965 C0=0.01658
New "Line.48" phases=1 bus1=b47846.3 bus2=b18967.3 rmatrix=[1.776013 ] xmatrix=[1.22609 ] cmatrix=[0 ]
New "Line.49" phases=3 bus1=b23208.1.2.3 bus2=b47983.1.2.3 r1=0.11756 x1=0.06383 r0=0.17435 x0=0.1963 C1=0.01965 C0=0.01658
New "Line.50" phases=3 bus1=b4808.1.2.3 bus2=b4829.1.2.3 r1=0.11672 x1=0.20892 r0=0.4942 x0=0.54707 C1=0.01965 C0=0.01658
New "Line.51" phases=3 bus1=b4829.1.2.3 bus2=b4832.1.2.3 r1=0.02455 x1=0.04406 r0=0.10053 x0=0.10769 C1=0.01965 C0=0.01658
New "Line.52" phases=3 bus1=b4832.1.2.3 bus2=b4833.1.2.3 r1=0.00716 x1=0.01311 r0=0.02944 x0=0.03288 C1=0.01965 C0=0.01658
New "Line.53" phases=3 bus1=b18821.1.2.3 bus2=b4837.1.2.3 r1=0.00575 x1=0.01124 r0=0.02401 x0=0.03045 C1=0.01965 C0=0.01658
New "Line.54" phases=3 bus1=b4862.1.2.3 bus2=b4808.1.2.3 r1=0.02848 x1=0.04473 r0=0.10441 x0=0.09634 C1=0.01965 C0=0.01658
New "Line.55" phases=3 bus1=b4877.1.2.3 bus2=b4862.1.2.3 r1=0.12726 x1=0.21042 r0=0.3557 x0=0.43083 C1=0.01965 C0=0.01658
New "Line.56" phases=3 bus1=b4888.1.2.3 bus2=b4877.1.2.3 r1=0.05956 x1=0.09408 r0=0.22838 x0=0.23031 C1=0.01965 C0=0.01658
New "Line.57" phases=3 bus1=b4909.1.2.3 bus2=b4888.1.2.3 r1=0.12584 x1=0.20309 r0=0.47178 x0=0.50951 C1=0.01965 C0=0.01658
New "Line.58" phases=3 bus1=b23283.1.2.3 bus2=b4909.1.2.3 r1=0.52262 x1=0.92222 r0=1.82945 x0=2.6391 C1=0.01965 C0=0.01658
New "Line.59" phases=3 bus1=b23208.1.2.3 bus2=b51854.1.2.3 r1=0.2312 x1=0.12578 r0=0.34315 x0=0.38748 C1=0.01965 C0=0.01658
New "Line.60" phases=3 bus1=b5220.1.2.3 bus2=b5213.1.2.3 r1=0.04895 x1=0.10193 r0=0.10968 x0=0.31426 C1=0.01965 C0=0.01658
New "Line.61" phases=3 bus1=feederhead.1.2.3 bus2=b5220.1.2.3 r1=0.00876 x1=0.01862 r0=0.02217 x0=0.05959 C1=0.01965 C0=0.01658
New "Line.62" phases=1 bus1=b52275.3 bus2=b19052.3 rmatrix=[1.234167 ] xmatrix=[0.80242 ] cmatrix=[0 ]
New "Line.63" phases=3 bus1=b4833.1.2.3 bus2=b56591.1.2.3 r1=0.21159 x1=0.12085 r0=0.30444 x0=0.37679 C1=0.01965 C0=0.01658
New "Line.64" phases=1 bus1=b56685.2 bus2=b43438.2 rmatrix=[0.645927 ] xmatrix=[0.2364 ] cmatrix=[0 ]
New "Line.65" phases=1 bus1=b57691.1 bus2=b19028.1 rmatrix=[0.683827 ] xmatrix=[0.57014 ] cmatrix=[0 ]
New "Line.66" phases=1 bus1=b58809.3 bus2=b19042.3 rmatrix=[0.35729 ] xmatrix=[0.20546 ] cmatrix=[0 ]
New "Line.67" phases=1 bus1=b59935.1 bus2=b41878.1 rmatrix=[0.99272 ] xmatrix=[0.75475 ] cmatrix=[0 ]
New "Line.68" phases=1 bus1=b60868.3 bus2=b2630.3 rmatrix=[0.906576 ] xmatrix=[0.70768 ] cmatrix=[0 ]
New "Line.69" phases=3 bus1=b18821.1.2.3 bus2=b61161.1.2.3 r1=0.11037 x1=0.06366 r0=0.15888 x0=0.19962 C1=0.01965 C0=0.01658
New "Line.70" phases=3 bus1=b18821.1.2.3 bus2=b61423.1.2.3 r1=0.01822 x1=0.01056 r0=0.02625 x0=0.03322 C1=0.01965 C0=0.01658
New "Line.71" phases=1 bus1=b63378.3 bus2=b35443.3 rmatrix=[3.09179 ] xmatrix=[1.87842 ] cmatrix=[0 ]
New "Line.72" phases=1 bus1=g36748.1 bus2=b4541.1 rmatrix=[0.30013 ] xmatrix=[0.36957 ] cmatrix=[0 ]
New "Line.73" phases=1 bus1=g42394.3 bus2=b47983.3 rmatrix=[0.72485 ] xmatrix=[0.41151 ] cmatrix=[0 ]
