CPYDAR/j1red/Load.dss
New "Load.aggregate_load" phases=3 bus1=ls_bus.1.2.3 kV=12.47 kW=5000 pf=-0.98 status=variable model=4 CVRwatts=0.8 CVRvars=3 class=1 NumCust=1 yearly=AggLoadProfile
New "Load.3_1" phases=3 bus1=b4833.1.2.3 kV=12.47 conn=wye model=2 kW=0.15 kvar=-1.15
New "Load.3_2" phases=3 bus1=5865228330a.1.2.3 kV=12.47 conn=wye model=2 kW=0.15 kvar=-1.15
New "Load.5_1" phases=1 bus1=5912527743.1 kV=7.2 conn=wye model=2 kW=23.85 kvar=17.65
New "Load.5_2" phases=1 bus1=b2630.1 kV=7.2 conn=wye model=2 kW=23.85 kvar=17.65
New "Load.10_1" phases=1 bus1=5998528541.3 kV=7.2 conn=wye model=2 kW=0.05 kvar=0
New "Load.10_2" phases=1 bus1=b18948.3 kV=7.2 conn=wye model=2 kW=0.05 kvar=0
New "Load.11_1" phases=3 bus1=b18858.1.2.3 kV=12.47 conn=wye model=2 kW=142.2 kvar=108.15
New "Load.11_2" phases=3 bus1=6022828946.1.2.3 kV=12.47 conn=wye model=2 kW=142.2 kvar=108.15
New "Load.12_1" phases=1 bus1=6093229888.1 kV=7.2 conn=wye model=2 kW=49.95 kvar=40.6
New "Load.12_2" phases=1 bus1=b19028.1 kV=7.2 conn=wye model=2 kW=49.95 kvar=40.6
New "Load.13_1" phases=3 bus1=b19183.1.2.3 kV=12.47 conn=wye model=2 kW=10.75 kvar=8.15
New "Load.13_2" phases=3 bus1=b13649.1.2.3 kV=12.47 conn=wye model=2 kW=10.75 kvar=8.15
New "Load.17_1" phases=3 bus1=b4833.1.2.3 kV=12.47 conn=wye model=2 kW=0.15 kvar=0.5
New "Load.17_2" phases=3 bus1=b18821.1.2.3 kV=12.47 conn=wye model=2 kW=0.15 kvar=0.5
New "Load.18_1" phases=3 bus1=b4837.1.2.3 kV=12.47 conn=wye model=2 kW=4.45 kvar=3.7
New "Load.18_2" phases=3 bus1=b18829.1.2.3 kV=12.47 conn=wye model=2 kW=4.45 kvar=3.7
New "Load.19_1" phases=3 bus1=b18829.1.2.3 kV=12.47 conn=wye model=2 kW=153.55 kvar=109.25
New "Load.19_2" phases=3 bus1=b18858.1.2.3 kV=12.47 conn=wye model=2 kW=153.55 kvar=109.25
New "Load.20_1" phases=3 bus1=6022828946.1.2.3 kV=12.47 conn=wye model=2 kW=0.3 kvar=0.2
New "Load.20_2" phases=3 bus1=b18941.1.2.3 kV=12.47 conn=wye model=2 kW=0.3 kvar=0.2
New "Load.21_1" phases=3 bus1=b18941.1.2.3 kV=12.47 conn=wye model=2 kW=6.4 kvar=4.1
New "Load.21_2" phases=3 bus1=b18948.1.2.3 kV=12.47 conn=wye model=2 kW=6.4 kvar=4.1
New "Load.22_1" phases=3 bus1=b18948.1.2.3 kV=12.47 conn=wye model=2 kW=22.45 kvar=17.5
New "Load.22_2" phases=3 bus1=b18967.1.2.3 kV=12.47 conn=wye model=2 kW=22.45 kvar=17.5
New "Load.23_1" phases=2 bus1=b19028.1.2 kV=12.47 conn=wye model=2 kW=39.4 kvar=27.95
New "Load.23_2" phases=2 bus1=b18967.1.2 kV=12.47 conn=wye model=2 kW=39.4 kvar=27.95
New "Load.24_1" phases=3 bus1=b4808.1.2.3 kV=12.47 conn=wye model=2 kW=26.15 kvar=19.25
New "Load.24_2" phases=3 bus1=b19042.1.2.3 kV=12.47 conn=wye model=2 kW=26.15 kvar=19.25
New "Load.25_1" phases=3 bus1=b4760.1.2.3 kV=12.47 conn=wye model=2 kW=36.55 kvar=26.65
New "Load.25_2" phases=3 bus1=b19052.1.2.3 kV=12.47 conn=wye model=2 kW=36.55 kvar=26.65
New "Load.26_1" phases=3 bus1=b4760.1.2.3 kV=12.47 conn=wye model=2 kW=12.65 kvar=9.4
New "Load.26_2" phases=3 bus1=b19183.1.2.3 kV=12.47 conn=wye model=2 kW=12.65 kvar=9.4
New "Load.28_1" phases=3 bus1=b4837.1.2.3 kV=12.47 conn=wye model=2 kW=9.15 kvar=6.1
New "Load.28_2" phases=3 bus1=b23208.1.2.3 kV=12.47 conn=wye model=2 kW=9.15 kvar=6.1
New "Load.29_1" phases=3 bus1=b5213.1.2.3 kV=12.47 conn=wye model=2 kW=29.35 kvar=43.1
New "Load.29_2" phases=3 bus1=b23283.1.2.3 kV=12.47 conn=wye model=2 kW=29.35 kvar=43.1
New "Load.32_1" phases=1 bus1=b24504.3 kV=7.2 conn=wye model=2 kW=78.95 kvar=56.9
New "Load.32_2" phases=1 bus1=b4725.3 kV=7.2 conn=wye model=2 kW=78.95 kvar=56.9
New "Load.33_1" phases=3 bus1=b23283.1.2.3 kV=12.47 conn=wye model=2 kW=25.95 kvar=18.05
New "Load.33_2" phases=3 bus1=b2630.1.2.3 kV=12.47 conn=wye model=2 kW=25.95 kvar=18.05
New "Load.36_1" phases=1 bus1=b32783.2 kV=7.2 conn=wye model=2 kW=22.7 kvar=15.45
New "Load.36_2" phases=1 bus1=b4888.2 kV=7.2 conn=wye model=2 kW=22.7 kvar=15.45
New "Load.38_1" phases=2 bus1=b41878.1.2 kV=12.47 conn=wye model=2 kW=172 kvar=124.7
New "Load.38_2" phases=2 bus1=b19028.1.2 kV=12.47 conn=wye model=2 kW=172 kvar=124.7
New "Load.39_1" phases=2 bus1=b43438.1.2 kV=12.47 conn=wye model=2 kW=52 kvar=38.45
New "Load.39_2" phases=2 bus1=b41878.1.2 kV=12.47 conn=wye model=2 kW=52 kvar=38.45
New "Load.40_1" phases=3 bus1=b4588.1.2.3 kV=12.47 conn=wye model=2 kW=87.5 kvar=61.85
New "Load.40_2" phases=3 bus1=b4541.1.2.3 kV=12.47 conn=wye model=2 kW=87.5 kvar=61.85
New "Load.41_1" phases=3 bus1=b4602.1.2.3 kV=12.47 conn=wye model=2 kW=22.65 kvar=15.8
New "Load.41_2" phases=3 bus1=b4588.1.2.3 kV=12.47 conn=wye model=2 kW=22.65 kvar=15.8
New "Load.42_1" phases=3 bus1=b4725.1.2.3 kV=12.47 conn=wye model=2 kW=26.05 kvar=19.1
New "Load.42_2" phases=3 bus1=b4602.1.2.3 kV=12.47 conn=wye model=2 kW=26.05 kvar=19.1
New "Load.43_1" phases=3 bus1=b4602.1.2.3 kV=12.47 conn=wye model=2 kW=10.5 kvar=7
New "Load.43_2" phases=3 bus1=b4619.1.2.3 kV=12.47 conn=wye model=2 kW=10.5 kvar=7
New "Load.44_1" phases=3 bus1=b18829.1.2.3 kV=12.47 conn=wye model=2 kW=17.3 kvar=12.1
New "Load.44_2" phases=3 bus1=b46703.1.2.3 kV=12.47 conn=wye model=2 kW=17.3 kvar=12.1
New "Load.45_1" phases=3 bus1=b13649.1.2.3 kV=12.47 conn=wye model=2 kW=4.1 kvar=2.7
New "Load.45_2" phases=3 bus1=b4725.1.2.3 kV=12.47 conn=wye model=2 kW=4.1 kvar=2.7
New "Load.46_1" phases=3 bus1=b4808.1.2.3 kV=12.47 conn=wye model=2 kW=44.45 kvar=32.45
New "Load.46_2" phases=3 bus1=b4760.1.2.3 kV=12.47 conn=wye model=2 kW=44.45 kvar=32.45
New "Load.47_1" phases=3 bus1=b4808.1.2.3 kV=12.47 conn=wye model=2 kW=42.05 kvar=30.05
New "Load.47_2" phases=3 bus1=b47668.1.2.3 kV=12.47 conn=wye model=2 kW=42.05 kvar=30.05
New "Load.48_1" phases=1 bus1=b47846.3 kV=7.2 conn=wye model=2 kW=61.9 kvar=43.55
New "Load.48_2" phases=1 bus1=b18967.3 kV=7.2 conn=wye model=2 kW=61.9 kvar=43.55
New "Load.50_1" phases=3 bus1=b4808.1.2.3 kV=12.47 conn=wye model=2 kW=45.6 kvar=34.9
New "Load.50_2" phases=3 bus1=b4829.1.2.3 kV=12.47 conn=wye model=2 kW=45.6 kvar=34.9
New "Load.51_1" phases=3 bus1=b4829.1.2.3 kV=12.47 conn=wye model=2 kW=0.35 kvar=1.1
New "Load.51_2" phases=3 bus1=b4832.1.2.3 kV=12.47 conn=wye model=2 kW=0.35 kvar=1.1
New "Load.52_1" phases=3 bus1=b4832.1.2.3 kV=12.47 conn=wye model=2 kW=0.15 kvar=0.35
New "Load.52_2" phases=3 bus1=b4833.1.2.3 kV=12.47 conn=wye model=2 kW=0.15 kvar=0.35
New "Load.54_1" phases=3 bus1=b4862.1.2.3 kV=12.47 conn=wye model=2 kW=21.55 kvar=17.45
New "Load.54_2" phases=3 bus1=b4808.1.2.3 kV=12.47 conn=wye model=2 kW=21.55 kvar=17.45
New "Load.56_1" phases=3 bus1=b4888.1.2.3 kV=12.47 conn=wye model=2 kW=14.25 kvar=13.45
New "Load.56_2" phases=3 bus1=b4877.1.2.3 kV=12.47 conn=wye model=2 kW=14.25 kvar=13.45
New "Load.57_1" phases=3 bus1=b4909.1.2.3 kV=12.47 conn=wye model=2 kW=25.15 kvar=26.05
New "Load.57_2" phases=3 bus1=b4888.1.2.3 kV=12.47 conn=wye model=2 kW=25.15 kvar=26.05
New "Load.58_1" phases=3 bus1=b23283.1.2.3 kV=12.47 conn=wye model=2 kW=109.2 kvar=117.3
New "Load.58_2" phases=3 bus1=b4909.1.2.3 kV=12.47 conn=wye model=2 kW=109.2 kvar=117.3
New "Load.59_1" phases=3 bus1=b23208.1.2.3 kV=12.47 conn=wye model=2 kW=28.4 kvar=19.05
New "Load.59_2" phases=3 bus1=b51854.1.2.3 kV=12.47 conn=wye model=2 kW=28.4 kvar=19.05
New "Load.60_1" phases=3 bus1=b5220.1.2.3 kV=12.47 conn=wye model=2 kW=4.25 kvar=8.25
New "Load.60_2" phases=3 bus1=b5213.1.2.3 kV=12.47 conn=wye model=2 kW=4.25 kvar=8.25
New "Load.61_1" phases=3 bus1=feederhead.1.2.3 kV=12.47 conn=wye model=2 kW=0.4 kvar=1.2
New "Load.61_2" phases=3 bus1=b5220.1.2.3 kV=12.47 conn=wye model=2 kW=0.4 kvar=1.2
New "Load.62_1" phases=1 bus1=b52275.3 kV=7.2 conn=wye model=2 kW=15.1 kvar=10.25
New "Load.62_2" phases=1 bus1=b19052.3 kV=7.2 conn=wye model=2 kW=15.1 kvar=10.25
New "Load.63_1" phases=3 bus1=b4833.1.2.3 kV=12.47 conn=wye model=2 kW=162.1 kvar=112.3
New "Load.63_2" phases=3 bus1=b56591.1.2.3 kV=12.47 conn=wye model=2 kW=162.1 kvar=112.3
New "Load.64_1" phases=1 bus1=b56685.2 kV=7.2 conn=wye model=2 kW=69.85 kvar=45.55
New "Load.64_2" phases=1 bus1=b43438.2 kV=7.2 conn=wye model=2 kW=69.85 kvar=45.55
New "Load.65_1" phases=1 bus1=b57691.1 kV=7.2 conn=wye model=2 kW=22.85 kvar=17
New "Load.65_2" phases=1 bus1=b19028.1 kV=7.2 conn=wye model=2 kW=22.85 kvar=17
New "Load.66_1" phases=1 bus1=b58809.3 kV=7.2 conn=wye model=2 kW=13.65 kvar=9.35
New "Load.66_2" phases=1 bus1=b19042.3 kV=7.2 conn=wye model=2 kW=13.65 kvar=9.35
New "Load.69_1" phases=3 bus1=b18821.1.2.3 kV=12.47 conn=wye model=2 kW=2.2 kvar=1.55
New "Load.69_2" phases=3 bus1=b61161.1.2.3 kV=12.47 conn=wye model=2 kW=2.2 kvar=1.55
